Circuit: * C:\Users\scott\Documents\GitHub\QRSS-hardware\builds\amplifier\LTspice\Draft1.asc

Direct Newton iteration for .op point succeeded.

Date: Sun Jul 21 23:43:25 2019
Total elapsed time: 0.454 seconds.

tnom = 27
temp = 27
method = modified trap
totiter = 237260
traniter = 237248
tranpoints = 60710
accept = 40455
rejected = 20255
matrix size = 18
fillins = 3
solver = Normal
Matrix Compiler1: 1.10 KB object code size  0.3/0.1/[0.1]
Matrix Compiler2: off  [0.1]/0.2/0.1

